c22.sdf
 OpenBabel04162418103D

 44 47  0  0  0  0  0  0  0  0999 V2000
   25.4245    1.9602  -64.5524 C   0  0  0  1  0  0  0  0  0  0  0  0
   25.7786    1.4195  -65.7346 N   0  0  0  1  0  0  0  0  0  0  0  0
   26.8390    0.5805  -65.7892 C   0  0  0  1  0  0  0  0  0  0  0  0
   27.5474    0.3109  -64.6321 C   0  0  0  1  0  0  0  0  0  0  0  0
   27.0608    0.8630  -63.4616 C   0  0  0  1  0  0  0  0  0  0  0  0
   25.9826    1.6643  -63.3778 N   0  0  0  1  0  0  0  0  0  0  0  0
   28.6964   -0.3925  -64.2503 C   0  0  0  1  0  0  0  0  0  0  0  0
   28.9427   -0.3112  -62.9424 N   0  0  0  1  0  0  0  0  0  0  0  0
   27.9136    0.4480  -62.4426 N   0  0  0  1  0  0  0  0  0  0  0  0
   27.8340    0.7113  -61.0412 C   0  0  0  1  0  0  0  0  0  0  0  0
   28.8495    0.2474  -60.1897 C   0  0  0  1  0  0  0  0  0  0  0  0
   28.7885    0.4835  -58.8085 C   0  0  0  1  0  0  0  0  0  0  0  0
   27.7106    1.1786  -58.2618 C   0  0  0  1  0  0  0  0  0  0  0  0
   26.7032    1.6405  -59.1079 C   0  0  0  1  0  0  0  0  0  0  0  0
   26.7602    1.4150  -60.4861 C   0  0  0  1  0  0  0  0  0  0  0  0
   27.5165    1.4676  -56.9413 O   0  0  0  1  0  0  0  0  0  0  0  0
   28.5149    1.0269  -56.0321 C   0  0  0  1  0  0  0  0  0  0  0  0
   24.4541    2.9589  -64.5156 N   0  0  0  1  0  0  0  0  0  0  0  0
   24.3531    3.7605  -65.7358 C   0  0  0  1  0  0  0  0  0  0  0  0
   25.6444    4.5313  -66.0391 C   0  0  0  1  0  0  0  0  0  0  0  0
   25.6434    5.6910  -65.0508 C   0  0  0  1  0  0  0  0  0  0  0  0
   24.1649    5.9966  -64.7841 C   0  0  0  1  0  0  0  0  0  0  0  0
   23.3631    4.9070  -65.5134 C   0  0  0  1  0  0  0  0  0  0  0  0
   23.7832    7.3311  -65.2412 N   0  0  0  1  0  0  0  0  0  0  0  0
   27.0992    0.1925  -66.7661 H   0  0  0  1  0  0  0  0  0  0  0  0
   29.3795   -0.9529  -64.8754 H   0  0  0  1  0  0  0  0  0  0  0  0
   29.7033   -0.3012  -60.5842 H   0  0  0  1  0  0  0  0  0  0  0  0
   29.5989    0.1083  -58.1923 H   0  0  0  1  0  0  0  0  0  0  0  0
   25.8577    2.1841  -58.6910 H   0  0  0  1  0  0  0  0  0  0  0  0
   25.9392    1.7994  -61.0827 H   0  0  0  1  0  0  0  0  0  0  0  0
   28.1945    1.3089  -55.0245 H   0  0  0  1  0  0  0  0  0  0  0  0
   29.4711    1.5221  -56.2305 H   0  0  0  1  0  0  0  0  0  0  0  0
   28.6199   -0.0631  -56.0541 H   0  0  0  1  0  0  0  0  0  0  0  0
   23.5845    2.4739  -64.3138 H   0  0  0  1  0  0  0  0  0  0  0  0
   24.0326    3.1390  -66.5812 H   0  0  0  1  0  0  0  0  0  0  0  0
   25.6027    4.9236  -67.0622 H   0  0  0  1  0  0  0  0  0  0  0  0
   26.5629    3.9441  -65.9530 H   0  0  0  1  0  0  0  0  0  0  0  0
   26.2104    6.5432  -65.4399 H   0  0  0  1  0  0  0  0  0  0  0  0
   26.1278    5.3889  -64.1138 H   0  0  0  1  0  0  0  0  0  0  0  0
   23.9732    5.9368  -63.7063 H   0  0  0  1  0  0  0  0  0  0  0  0
   23.0163    5.2683  -66.4907 H   0  0  0  1  0  0  0  0  0  0  0  0
   22.4761    4.6108  -64.9422 H   0  0  0  1  0  0  0  0  0  0  0  0
   24.0026    7.4332  -66.2316 H   0  0  0  1  0  0  0  0  0  0  0  0
   24.3578    8.0242  -64.7610 H   0  0  0  1  0  0  0  0  0  0  0  0
  1  2  4  0  0  0  0
  1  6  4  0  0  0  0
  1 18  1  0  0  0  0
  2  3  4  0  0  0  0
  3  4  4  0  0  0  0
  3 25  1  0  0  0  0
  4  5  4  0  0  0  0
  4  7  4  0  0  0  0
  5  6  4  0  0  0  0
  5  9  4  0  0  0  0
  7  8  4  0  0  0  0
  7 26  1  0  0  0  0
  8  9  4  0  0  0  0
  9 10  1  0  0  0  0
 10 11  4  0  0  0  0
 10 15  4  0  0  0  0
 11 12  4  0  0  0  0
 11 27  1  0  0  0  0
 12 13  4  0  0  0  0
 12 28  1  0  0  0  0
 13 14  4  0  0  0  0
 13 16  1  0  0  0  0
 14 15  4  0  0  0  0
 14 29  1  0  0  0  0
 15 30  1  0  0  0  0
 16 17  1  0  0  0  0
 17 31  1  0  0  0  0
 17 32  1  0  0  0  0
 17 33  1  0  0  0  0
 18 19  1  0  0  0  0
 18 34  1  0  0  0  0
 19 20  1  0  0  0  0
 19 23  1  0  0  0  0
 19 35  1  0  0  0  0
 20 21  1  0  0  0  0
 20 36  1  0  0  0  0
 20 37  1  0  0  0  0
 21 22  1  0  0  0  0
 21 38  1  0  0  0  0
 21 39  1  0  0  0  0
 22 23  1  0  0  0  0
 22 24  1  0  0  0  0
 22 40  1  0  0  0  0
 23 41  1  0  0  0  0
 23 42  1  0  0  0  0
 24 43  1  0  0  0  0
 24 44  1  0  0  0  0
M  END
$$$$
