c13.sdf
 OpenBabel04162418043D

 44 47  0  0  1  0  0  0  0  0999 V2000
    2.0825   -0.3575   -1.8286 N   0  0  0  0  0  0  0  0  0  0  0  0
    2.5337    0.5960   -2.6632 C   0  0  0  0  0  0  0  0  0  0  0  0
    2.1765    0.7356   -3.9445 N   0  0  0  0  0  0  0  0  0  0  0  0
    1.2992   -0.1982   -4.3893 C   0  0  0  0  0  0  0  0  0  0  0  0
    0.7953   -1.1991   -3.5869 C   0  0  0  0  0  0  0  0  0  0  0  0
    1.2177   -1.2848   -2.2838 C   0  0  0  0  0  0  0  0  0  0  0  0
    0.7380   -0.4383   -5.6525 C   0  0  0  0  0  0  0  0  0  0  0  0
   -0.0041   -1.5517   -5.6867 N   0  0  0  0  0  0  0  0  0  0  0  0
   -0.0236   -1.9689   -4.3909 N   0  0  0  0  0  0  0  0  0  0  0  0
   -0.8158   -3.0726   -3.9954 C   0  0  0  0  0  0  0  0  0  0  0  0
   -1.0625   -4.1189   -4.8969 C   0  0  0  0  0  0  0  0  0  0  0  0
   -1.8517   -5.2040   -4.5035 C   0  0  0  0  0  0  0  0  0  0  0  0
   -2.4339   -5.2320   -3.2329 C   0  0  0  0  0  0  0  0  0  0  0  0
   -2.1863   -4.1807   -2.3453 C   0  0  0  0  0  0  0  0  0  0  0  0
   -1.3651   -3.1189   -2.7127 C   0  0  0  0  0  0  0  0  0  0  0  0
   -3.2499   -6.2113   -2.7432 O   0  0  0  0  0  0  0  0  0  0  0  0
   -3.5342   -7.3057   -3.6052 C   0  0  0  0  0  0  0  0  0  0  0  0
    3.4748    1.5018   -2.1817 N   0  0  0  0  0  0  0  0  0  0  0  0
    4.3901    1.0410   -1.1491 C   0  0  1  0  0  0  0  0  0  0  0  0
    5.2650   -0.1463   -1.5516 C   0  0  0  0  0  0  0  0  0  0  0  0
    6.4540   -0.1032   -0.5855 C   0  0  1  0  0  0  0  0  0  0  0  0
    6.6143    1.3742   -0.2053 C   0  0  0  0  0  0  0  0  0  0  0  0
    5.4334    2.1162   -0.8356 C   0  0  0  0  0  0  0  0  0  0  0  0
    6.2186   -0.9299    0.5982 N   0  0  0  0  0  0  0  0  0  0  0  0
    0.9448   -2.0725   -1.5942 H   0  0  0  0  0  0  0  0  0  0  0  0
    0.8702    0.1341   -6.5635 H   0  0  0  0  0  0  0  0  0  0  0  0
   -0.6095   -4.1231   -5.8834 H   0  0  0  0  0  0  0  0  0  0  0  0
   -1.9919   -6.0157   -5.2117 H   0  0  0  0  0  0  0  0  0  0  0  0
   -2.6482   -4.1893   -1.3598 H   0  0  0  0  0  0  0  0  0  0  0  0
   -1.2191   -2.3131   -1.9977 H   0  0  0  0  0  0  0  0  0  0  0  0
   -4.2051   -7.9858   -3.0717 H   0  0  0  0  0  0  0  0  0  0  0  0
   -2.6221   -7.8612   -3.8490 H   0  0  0  0  0  0  0  0  0  0  0  0
   -4.0504   -6.9745   -4.5128 H   0  0  0  0  0  0  0  0  0  0  0  0
    3.8487    2.0285   -2.9597 H   0  0  0  0  0  0  0  0  0  0  0  0
    3.8377    0.8122   -0.2276 H   0  0  0  0  0  0  0  0  0  0  0  0
    5.6238   -0.0386   -2.5833 H   0  0  0  0  0  0  0  0  0  0  0  0
    4.7285   -1.1021   -1.4999 H   0  0  0  0  0  0  0  0  0  0  0  0
    7.3558   -0.4804   -1.0811 H   0  0  0  0  0  0  0  0  0  0  0  0
    7.5647    1.7711   -0.5810 H   0  0  0  0  0  0  0  0  0  0  0  0
    6.6249    1.5252    0.8820 H   0  0  0  0  0  0  0  0  0  0  0  0
    5.7712    2.6229   -1.7486 H   0  0  0  0  0  0  0  0  0  0  0  0
    5.0390    2.8867   -0.1659 H   0  0  0  0  0  0  0  0  0  0  0  0
    5.4044   -0.6008    1.1150 H   0  0  0  0  0  0  0  0  0  0  0  0
    7.0103   -0.8545    1.2365 H   0  0  0  0  0  0  0  0  0  0  0  0
  1  2  2  0  0  0  0
  2  3  1  0  0  0  0
  2 18  1  0  0  0  0
  3  4  2  0  0  0  0
  4  5  1  0  0  0  0
  4  7  1  0  0  0  0
  5  6  2  0  0  0  0
  6  1  1  0  0  0  0
  6 25  1  0  0  0  0
  7  8  2  0  0  0  0
  7 26  1  0  0  0  0
  8  9  1  0  0  0  0
  9  5  1  0  0  0  0
  9 10  1  0  0  0  0
 10 11  2  0  0  0  0
 11 12  1  0  0  0  0
 11 27  1  0  0  0  0
 12 13  2  0  0  0  0
 12 28  1  0  0  0  0
 13 14  1  0  0  0  0
 13 16  1  0  0  0  0
 14 15  2  0  0  0  0
 14 29  1  0  0  0  0
 15 10  1  0  0  0  0
 15 30  1  0  0  0  0
 16 17  1  0  0  0  0
 17 31  1  0  0  0  0
 17 32  1  0  0  0  0
 17 33  1  0  0  0  0
 18 34  1  0  0  0  0
 19 20  1  0  0  0  0
 19 18  1  0  0  0  0
 19 35  1  1  0  0  0
 20 21  1  0  0  0  0
 20 36  1  0  0  0  0
 20 37  1  0  0  0  0
 21 22  1  0  0  0  0
 21 24  1  0  0  0  0
 21 38  1  6  0  0  0
 22 23  1  0  0  0  0
 22 39  1  0  0  0  0
 22 40  1  0  0  0  0
 23 19  1  0  0  0  0
 23 41  1  0  0  0  0
 23 42  1  0  0  0  0
 24 43  1  0  0  0  0
 24 44  1  0  0  0  0
M  END
$$$$
