lig
  PyMOL2.3          3D                             0

 50 52  0  0  0  0  0  0  0  0999 V2000
  148.9090  111.9810  146.3350 C   0  0  0  0  0  0  0  0  0  0  0  0
  149.3410  113.8840  147.6510 N   0  0  0  0  0  0  0  0  0  0  0  0
  149.6080  115.9390  146.7040 O   0  0  0  0  0  0  0  0  0  0  0  0
  149.1950  114.1480  145.2880 C   0  0  0  0  0  0  0  0  0  0  0  0
  149.1830  109.8410  145.1720 N   0  0  0  0  0  0  0  0  0  0  0  0
  147.9680  109.9510  147.0190 O   0  0  0  0  0  0  0  0  0  0  0  0
  149.3980  114.7450  146.5700 C   0  0  0  0  0  0  0  0  0  0  0  0
  149.2350  114.9460  144.1310 N   0  0  0  0  0  0  0  0  0  0  0  0
  147.7360  118.0320  143.0760 O   0  0  0  0  0  0  0  0  0  0  0  0
  148.6430  110.5140  146.2130 C   0  0  0  0  0  0  0  0  0  0  0  0
  149.3430  117.0840  144.8650 O   0  0  0  0  0  0  0  0  0  0  0  0
  148.9600  112.7980  145.1790 C   0  0  0  0  0  0  0  0  0  0  0  0
  149.1030  112.5490  147.5490 C   0  0  0  0  0  0  0  0  0  0  0  0
  148.9660  116.2580  144.0350 C   0  0  0  0  0  0  0  0  0  0  0  0
  147.1160  118.6390  142.0170 C   0  0  0  0  0  0  0  0  0  0  0  0
  145.8020  118.2520  141.8150 C   0  0  0  0  0  0  0  0  0  0  0  0
  148.1640  116.6710  142.8360 C   0  0  0  0  0  0  0  0  0  0  0  0
  149.5500  114.4460  148.9900 C   0  0  0  0  0  0  0  0  0  0  0  0
  149.5000  108.4050  145.1520 C   0  0  0  0  0  0  0  0  0  0  0  0
  149.5510  110.4230  143.8690 C   0  0  0  0  0  0  0  0  0  0  0  0
  147.6990  119.5720  141.1810 C   0  0  0  0  0  0  0  0  0  0  0  0
  145.1630  117.2360  142.7330 C   0  0  0  0  0  0  0  0  0  0  0  0
  145.0730  118.7950  140.7720 C   0  0  0  0  0  0  0  0  0  0  0  0
  150.6460  109.4780  143.3080 C   0  0  0  0  0  0  0  0  0  0  0  0
  150.1260  108.0930  143.7760 C   0  0  0  0  0  0  0  0  0  0  0  0
  146.9690  120.1170  140.1350 C   0  0  0  0  0  0  0  0  0  0  0  0
  145.6590  119.7300  139.9330 C   0  0  0  0  0  0  0  0  0  0  0  0
  148.8180  112.3720  144.2400 H   0  0  0  0  0  0  0  0  0  0  0  0
  149.0690  111.9610  148.4070 H   0  0  0  0  0  0  0  0  0  0  0  0
  149.4920  114.4940  143.3020 H   0  0  0  0  0  0  0  0  0  0  0  0
  147.3140  116.0310  142.7210 H   0  0  0  0  0  0  0  0  0  0  0  0
  148.7670  116.6250  141.9540 H   0  0  0  0  0  0  0  0  0  0  0  0
  149.6830  113.6510  149.6960 H   0  0  0  0  0  0  0  0  0  0  0  0
  148.6980  115.0310  149.2700 H   0  0  0  0  0  0  0  0  0  0  0  0
  150.4210  115.0670  148.9840 H   0  0  0  0  0  0  0  0  0  0  0  0
  150.1960  108.1740  145.9310 H   0  0  0  0  0  0  0  0  0  0  0  0
  148.6080  107.8310  145.2880 H   0  0  0  0  0  0  0  0  0  0  0  0
  148.7040  110.4520  143.2140 H   0  0  0  0  0  0  0  0  0  0  0  0
  149.9380  111.4140  143.9940 H   0  0  0  0  0  0  0  0  0  0  0  0
  148.6840  119.8660  141.3360 H   0  0  0  0  0  0  0  0  0  0  0  0
  144.3380  116.7730  142.2330 H   0  0  0  0  0  0  0  0  0  0  0  0
  144.8130  117.7270  143.6180 H   0  0  0  0  0  0  0  0  0  0  0  0
  145.8830  116.4930  142.9970 H   0  0  0  0  0  0  0  0  0  0  0  0
  144.0880  118.5000  140.6170 H   0  0  0  0  0  0  0  0  0  0  0  0
  150.7020  109.5340  142.2410 H   0  0  0  0  0  0  0  0  0  0  0  0
  151.6060  109.6980  143.7280 H   0  0  0  0  0  0  0  0  0  0  0  0
  149.3920  107.7090  143.0990 H   0  0  0  0  0  0  0  0  0  0  0  0
  150.9290  107.3920  143.8690 H   0  0  0  0  0  0  0  0  0  0  0  0
  147.4090  120.8150  139.5030 H   0  0  0  0  0  0  0  0  0  0  0  0
  145.1090  120.1410  139.1500 H   0  0  0  0  0  0  0  0  0  0  0  0
  1 10  1  0  0  0  0
  1 12  4  0  0  0  0
  2 13  4  0  0  0  0
  2 18  1  0  0  0  0
  4  7  4  0  0  0  0
  4 12  4  0  0  0  0
  5 19  1  0  0  0  0
  5 20  1  0  0  0  0
  2  7  4  0  0  0  0
  3  7  2  0  0  0  0
  4  8  1  0  0  0  0
  8 14  1  0  0  0  0
  8 30  1  0  0  0  0
  9 15  1  0  0  0  0
  5 10  1  0  0  0  0
  6 10  2  0  0  0  0
 12 28  1  0  0  0  0
  1 13  4  0  0  0  0
 13 29  1  0  0  0  0
 11 14  2  0  0  0  0
 14 17  1  0  0  0  0
 15 16  4  0  0  0  0
 15 21  4  0  0  0  0
 16 22  1  0  0  0  0
 16 23  4  0  0  0  0
  9 17  1  0  0  0  0
 17 31  1  0  0  0  0
 17 32  1  0  0  0  0
 18 33  1  0  0  0  0
 18 34  1  0  0  0  0
 18 35  1  0  0  0  0
 19 25  1  0  0  0  0
 19 36  1  0  0  0  0
 19 37  1  0  0  0  0
 20 38  1  0  0  0  0
 20 39  1  0  0  0  0
 21 40  1  0  0  0  0
 22 41  1  0  0  0  0
 22 42  1  0  0  0  0
 22 43  1  0  0  0  0
 23 27  4  0  0  0  0
 23 44  1  0  0  0  0
 20 24  1  0  0  0  0
 24 45  1  0  0  0  0
 24 46  1  0  0  0  0
 24 25  1  0  0  0  0
 25 47  1  0  0  0  0
 25 48  1  0  0  0  0
 21 26  4  0  0  0  0
 26 49  1  0  0  0  0
 26 27  4  0  0  0  0
 27 50  1  0  0  0  0
M  END
$$$$
